*LTspice
*
*MAX44285F
*Dual-Channel, High-Precision, High-Voltage, Current-Sense Amplifier
*AE01001285
*
*netlist
.include MAX44285F.cir
*
*params
.param LOAD1=1
.param LOAD2=1
.param VSOURCE=76
.param VSUPPLY=5
.param RSNS1=0.05
.param RSNS2=0.05
.param RLPF1=100
.param RLPF2=100
*
*load regulation
.dc I1 0 {LOAD1} 0.1 I2 0 {LOAD2} 0.1
*
.backanno
.op
